MOL_0_isomer_0_conf_0
     RDKit          3D

 65 69  0  0  0  0  0  0  0  0999 V2000
    1.9896    2.6212   20.2365 C   0  0  0  0  0  0  0  0  0  0  0  0
    2.4170    3.1165   21.4130 N   0  0  0  0  0  0  0  0  0  0  0  0
    2.8365    2.2402   22.3345 C   0  0  0  0  0  0  0  0  0  0  0  0
    3.2577    2.7711   23.5172 N   0  0  0  0  0  0  0  0  0  0  0  0
    3.6817    1.9740   24.6435 C   0  0  2  0  0  0  0  0  0  0  0  0
    2.4977    1.3712   25.3909 C   0  0  0  0  0  0  0  0  0  0  0  0
    1.1912    1.6904   24.9811 C   0  0  0  0  0  0  0  0  0  0  0  0
    0.0830    1.1274   25.6178 C   0  0  0  0  0  0  0  0  0  0  0  0
    0.2641    0.2369   26.6732 C   0  0  0  0  0  0  0  0  0  0  0  0
    1.5518   -0.0952   27.0885 C   0  0  0  0  0  0  0  0  0  0  0  0
    2.6610    0.4623   26.4487 C   0  0  0  0  0  0  0  0  0  0  0  0
    4.4901    2.8696   25.5886 C   0  0  0  0  0  0  0  0  0  0  0  0
    2.8528    0.9171   22.1420 N   0  0  0  0  0  0  0  0  0  0  0  0
    2.3962    0.4570   20.9587 C   0  0  0  0  0  0  0  0  0  0  0  0
    2.3843   -1.0047   20.7989 C   0  0  0  0  0  0  0  0  0  0  0  0
    3.1247   -1.6987   19.9091 C   0  0  0  0  0  0  0  0  0  0  0  0
    4.0903   -1.2429   18.9085 C   0  0  0  0  0  0  0  0  0  0  0  0
    5.3315   -0.7082   19.2926 C   0  0  0  0  0  0  0  0  0  0  0  0
    6.2463   -0.2718   18.3311 C   0  0  0  0  0  0  0  0  0  0  0  0
    5.9272   -0.3769   16.9839 C   0  0  0  0  0  0  0  0  0  0  0  0
    6.8038    0.0404   16.0622 F   0  0  0  0  0  0  0  0  0  0  0  0
    4.7118   -0.9134   16.5795 C   0  0  0  0  0  0  0  0  0  0  0  0
    3.7955   -1.3488   17.5403 C   0  0  0  0  0  0  0  0  0  0  0  0
    2.7473   -3.1230   20.1590 C   0  0  0  0  0  0  0  0  0  0  0  0
    3.1032   -4.0873   19.4991 O   0  0  0  0  0  0  0  0  0  0  0  0
    1.8657   -3.1454   21.2396 N   0  0  0  0  0  0  0  0  0  0  0  0
    1.0592   -4.2842   21.6465 C   0  0  0  0  0  0  0  0  0  0  0  0
    1.8012   -5.6054   21.3844 C   0  0  0  0  0  0  0  0  0  0  0  0
    0.9389   -6.8080   21.7134 C   0  0  0  0  0  0  0  0  0  0  0  0
   -0.3449   -6.7082   20.9615 N   0  0  0  0  0  4  0  0  0  0  0  0
   -1.1347   -5.4871   21.2906 C   0  0  0  0  0  0  0  0  0  0  0  0
   -0.3137   -4.2570   20.9571 C   0  0  0  0  0  0  0  0  0  0  0  0
    1.5896   -1.8241   21.6041 N   0  0  0  0  0  0  0  0  0  0  0  0
    1.1547   -1.4906   22.9527 C   0  0  0  0  0  0  0  0  0  0  0  0
    1.9497    1.2821   19.9519 C   0  0  0  0  0  0  0  0  0  0  0  0
    1.6651    3.3517   19.4991 H   0  0  0  0  0  0  0  0  0  0  0  0
    3.1912    3.7746   23.5978 H   0  0  0  0  0  0  0  0  0  0  0  0
    4.3437    1.1658   24.3000 H   0  0  0  0  0  0  0  0  0  0  0  0
    1.0326    2.3747   24.1500 H   0  0  0  0  0  0  0  0  0  0  0  0
   -0.9202    1.3708   25.2786 H   0  0  0  0  0  0  0  0  0  0  0  0
   -0.5957   -0.2136   27.1621 H   0  0  0  0  0  0  0  0  0  0  0  0
    1.6969   -0.8003   27.9035 H   0  0  0  0  0  0  0  0  0  0  0  0
    3.6574    0.1798   26.7819 H   0  0  0  0  0  0  0  0  0  0  0  0
    4.4499    2.5050   26.6205 H   0  0  0  0  0  0  0  0  0  0  0  0
    5.5422    2.8985   25.2773 H   0  0  0  0  0  0  0  0  0  0  0  0
    4.1132    3.9002   25.5754 H   0  0  0  0  0  0  0  0  0  0  0  0
    5.6077   -0.6323   20.3434 H   0  0  0  0  0  0  0  0  0  0  0  0
    7.2053    0.1439   18.6255 H   0  0  0  0  0  0  0  0  0  0  0  0
    4.4874   -0.9931   15.5203 H   0  0  0  0  0  0  0  0  0  0  0  0
    2.8508   -1.7729   17.2058 H   0  0  0  0  0  0  0  0  0  0  0  0
    0.8918   -4.2247   22.7270 H   0  0  0  0  0  0  0  0  0  0  0  0
    2.1136   -5.6789   20.3365 H   0  0  0  0  0  0  0  0  0  0  0  0
    2.7215   -5.6374   21.9803 H   0  0  0  0  0  0  0  0  0  0  0  0
    1.4181   -7.7421   21.4056 H   0  0  0  0  0  0  0  0  0  0  0  0
    0.6928   -6.8638   22.7789 H   0  0  0  0  0  0  0  0  0  0  0  0
   -0.9154   -7.5457   21.1462 H   0  0  0  0  0  0  0  0  0  0  0  0
   -0.1500   -6.7300   19.9476 H   0  0  0  0  0  0  0  0  0  0  0  0
   -2.0523   -5.5302   20.6964 H   0  0  0  0  0  0  0  0  0  0  0  0
   -1.3916   -5.5385   22.3537 H   0  0  0  0  0  0  0  0  0  0  0  0
   -0.8625   -3.3558   21.2568 H   0  0  0  0  0  0  0  0  0  0  0  0
   -0.1967   -4.1958   19.8681 H   0  0  0  0  0  0  0  0  0  0  0  0
    1.9192   -1.7876   23.6782 H   0  0  0  0  0  0  0  0  0  0  0  0
    0.9631   -0.4188   23.0561 H   0  0  0  0  0  0  0  0  0  0  0  0
    0.2168   -2.0002   23.1941 H   0  0  0  0  0  0  0  0  0  0  0  0
    1.5911    0.9110   19.0006 H   0  0  0  0  0  0  0  0  0  0  0  0
 36  1  1  0
  1  2  2  0
  2  3  1  0
  3  4  1  0
  4 37  1  0
  4  5  1  0
  5 38  1  6
  5  6  1  0
  6  7  2  0
  7 39  1  0
  7  8  1  0
  8 40  1  0
  8  9  2  0
  9 41  1  0
  9 10  1  0
 10 42  1  0
  6 11  1  0
 10 11  2  0
 11 43  1  0
  5 12  1  0
 12 44  1  0
 12 45  1  0
 12 46  1  0
  3 13  2  0
 13 14  1  0
 14 15  1  0
 15 16  2  0
 16 17  1  0
 17 18  2  0
 18 47  1  0
 18 19  1  0
 19 48  1  0
 19 20  2  0
 20 21  1  0
 20 22  1  0
 22 49  1  0
 17 23  1  0
 22 23  2  0
 23 50  1  0
 16 24  1  0
 24 25  2  0
 24 26  1  0
 26 27  1  0
 27 51  1  0
 27 28  1  0
 28 52  1  0
 28 53  1  0
 28 29  1  0
 29 54  1  0
 29 55  1  0
 29 30  1  0
 30 56  1  0
 30 57  1  0
 30 31  1  0
 31 58  1  0
 31 59  1  0
 27 32  1  0
 31 32  1  0
 32 60  1  0
 32 61  1  0
 15 33  1  0
 26 33  1  0
 33 34  1  0
 34 62  1  0
 34 63  1  0
 34 64  1  0
  1 35  1  0
 14 35  2  0
 35 65  1  0
M  CHG  1  30   1
M  END
>  <conformer_energy>  (1) 
-11.64

>  <ligand_smiles>  (1) 
C[C@H](Nc1nccc(-c2c(-c3ccc(F)cc3)c(=O)n(C3CC[NH2+]CC3)n2C)n1)c1ccccc1

>  <ligand_conf_name>  (1) 
MOL_0_isomer_0_conf_0

>  <ligand_molecule_name>  (1) 
MOL_0_isomer_0

>  <aligned_conformer_energy>  (1) 
-8.615785762919135

>  <fragInfo>  (1) 
1 2 3 4 5 12 13 14 15 16 24 25 26 33 34 35 36 37 38 44 45 46 62 63 64 65
6 7 8 9 10 11 39 40 41 42 43
17 18 19 20 21 22 23 47 48 49 50
27 28 29 30 31 32 51 52 53 54 55 56 57 58 59 60 61


>  <torsionInfo>  (1) 
16 17 0 2
5 6 0 1
26 27 0 3


>  <atomInfo>  (1) 
1  0.033055  A 
2  -0.221617 NA
3  0.223223  A 
4  -0.347686 N 
5  0.051426  C 
6  -0.025949 A 
7  -0.056982 A 
8  -0.061917 A 
9  -0.062246 A 
10 -0.061917 A 
11 -0.056982 A 
12 -0.040479 C 
13 -0.211368 NA
14 0.094579  A 
15 0.096465  A 
16 0.075978  A 
17 -0.010333 A 
18 -0.051191 A 
19 -0.025702 A 
20 0.122751  A 
21 -0.207012 F 
22 -0.025702 A 
23 -0.051191 A 
24 0.275018  A 
25 -0.267065 OA
26 -0.246263 N 
27 0.064604  C 
28 0.019288  C 
29 0.077563  C 
30 -0.346118 N 
31 0.077563  C 
32 0.019288  C 
33 -0.282502 N 
34 0.028638  C 
35 -0.015528 A 
36 0.084213  H 
37 0.163818  HD
38 0.057713  H 
39 0.062639  H 
40 0.062280  H 
41 0.062269  H 
42 0.062280  H 
43 0.062639  H 
44 0.025485  H 
45 0.025485  H 
46 0.025485  H 
47 0.063034  H 
48 0.065380  H 
49 0.065380  H 
50 0.063034  H 
51 0.055731  H 
52 0.034673  H 
53 0.034673  H 
54 0.092352  H 
55 0.092352  H 
56 0.345809  HD
57 0.345809  HD
58 0.092352  H 
59 0.092352  H 
60 0.034673  H 
61 0.034673  H 
62 0.047818  H 
63 0.047818  H 
64 0.047818  H 
65 0.066275  H 


>  <torsionSamplingRangeInfo>  (1) 
TORSION 7 6 5 4
SMARTS [a:1][c:2]!@[CX4H1:3][N,O:4]
RANGE 0.0 100.0
RANGE 100.0 180.0
RANGE 180.0 -100.0
RANGE -100.0 0.0
HISTOGRAM 989.0 1407.0 1857.0 2225.0 2282.0 1942.0 1461.0 1050.0 866.0 829.0 1108.0 1585.0 2172.0 2380.0 2218.0 1832.0 1339.0 930.0 891.0 1253.0 1756.0 2241.0 2380.0 2166.0 1589.0 1067.0 843.0 868.0 1046.0 1465.0 1924.0 2253.0 2216.0 1966.0 1515.0 1027.0
TORSION 18 17 16 15
SMARTS [a:1][c:2]!@[CX3:3]=[CX3H0:4]
RANGE 30.0 90.0
RANGE -150.0 -90.0
RANGE 150.0 -150.0
RANGE -30.0 30.0
RANGE -90.0 -30.0
RANGE 90.0 150.0
HISTOGRAM 1630.0 801.0 952.0 1360.0 2018.0 1736.0 1128.0 798.0 656.0 667.0 805.0 1302.0 1985.0 2068.0 1298.0 811.0 721.0 1672.0 1584.0 730.0 846.0 1242.0 2029.0 1907.0 1194.0 834.0 674.0 658.0 776.0 1206.0 1863.0 2027.0 1393.0 946.0 768.0 1731.0
TORSION 24 26 27 51
SMARTS [$(C=O):1][NX3H0:2]!@[CX4H1:3][H:4]
RANGE -30.0 30.0
RANGE 160.0 -160.0
HISTOGRAM 579.0 183.0 69.0 13.0 4.0 5.0 1.0 0.0 7.0 6.0 8.0 6.0 17.0 43.0 107.0 198.0 336.0 623.0 615.0 364.0 214.0 105.0 44.0 14.0 6.0 1.0 7.0 6.0 5.0 3.0 3.0 4.0 20.0 77.0 202.0 590.0


> <Uni-Dock RESULT> 
ENERGY=  -11.814  LOWER_BOUND=    0.000  UPPER_BOUND=    0.000
INTER + INTRA:         -14.362
INTER:                 -13.886
INTRA:                  -0.476
UNBOUND:                -0.476
REMARK  -4.713 (kcal/mol)
Estimated Free Energy of Binding   : -4.713 (kcal/mol) [=(1)+(2)+(3)+(4)]
(1) Final Intermolecular Energy    : -5.168 (kcal/mol)
    Ligand - Receptor              : -5.168 (kcal/mol)
    Ligand - Flex side chains      : 0.000 (kcal/mol)
(2) Final Total Internal Energy    : -0.847 (kcal/mol)
    Ligand                         : -0.847 (kcal/mol)
    Flex   - Receptor              : 0.000 (kcal/mol)
    Flex   - Flex side chains      : 0.000 (kcal/mol)
(3) Torsional Free Energy          : 0.827 (kcal/mol)
(4) Unbound System's Energy        : -0.476 (kcal/mol)

$$$$
MOL_0_isomer_0_conf_0
     RDKit          3D

 65 69  0  0  0  0  0  0  0  0999 V2000
    1.9179    2.5512   19.9801 C   0  0  0  0  0  0  0  0  0  0  0  0
    2.3231    2.9419   21.2030 N   0  0  0  0  0  0  0  0  0  0  0  0
    2.7233    1.9881   22.0533 C   0  0  0  0  0  0  0  0  0  0  0  0
    3.1221    2.4138   23.2854 N   0  0  0  0  0  0  0  0  0  0  0  0
    3.5230    1.5213   24.3467 C   0  0  2  0  0  0  0  0  0  0  0  0
    2.3238    0.8600   25.0164 C   0  0  0  0  0  0  0  0  0  0  0  0
    1.0673    1.4876   24.9513 C   0  0  0  0  0  0  0  0  0  0  0  0
   -0.0609    0.8927   25.5204 C   0  0  0  0  0  0  0  0  0  0  0  0
    0.0499   -0.3382   26.1625 C   0  0  0  0  0  0  0  0  0  0  0  0
    1.2861   -0.9769   26.2311 C   0  0  0  0  0  0  0  0  0  0  0  0
    2.4139   -0.3862   25.6572 C   0  0  0  0  0  0  0  0  0  0  0  0
    4.3141    2.3296   25.3808 C   0  0  0  0  0  0  0  0  0  0  0  0
    2.7414    0.6865   21.7479 N   0  0  0  0  0  0  0  0  0  0  0  0
    2.3073    0.3315   20.5207 C   0  0  0  0  0  0  0  0  0  0  0  0
    2.2965   -1.1110   20.2352 C   0  0  0  0  0  0  0  0  0  0  0  0
    3.0531   -1.7280   19.3033 C   0  0  0  0  0  0  0  0  0  0  0  0
    4.0386   -1.1906   18.3646 C   0  0  0  0  0  0  0  0  0  0  0  0
    5.3092   -0.7833   18.8048 C   0  0  0  0  0  0  0  0  0  0  0  0
    6.2431   -0.2678   17.9026 C   0  0  0  0  0  0  0  0  0  0  0  0
    5.9132   -0.1665   16.5577 C   0  0  0  0  0  0  0  0  0  0  0  0
    6.8082    0.3266   15.6927 F   0  0  0  0  0  0  0  0  0  0  0  0
    4.6683   -0.5742   16.0969 C   0  0  0  0  0  0  0  0  0  0  0  0
    3.7329   -1.0885   16.9985 C   0  0  0  0  0  0  0  0  0  0  0  0
    2.6688   -3.1673   19.4222 C   0  0  0  0  0  0  0  0  0  0  0  0
    3.0361   -4.0723   18.6886 O   0  0  0  0  0  0  0  0  0  0  0  0
    1.7663   -3.2800   20.4796 N   0  0  0  0  0  0  0  0  0  0  0  0
    0.9504   -4.4471   20.7712 C   0  0  0  0  0  0  0  0  0  0  0  0
   -0.4620   -4.0333   21.2169 C   0  0  0  0  0  0  0  0  0  0  0  0
   -1.2981   -5.2329   21.6171 C   0  0  0  0  0  0  0  0  0  0  0  0
   -0.5685   -6.0102   22.6597 N   0  0  0  0  0  4  0  0  0  0  0  0
    0.7569   -6.5194   22.2047 C   0  0  0  0  0  0  0  0  0  0  0  0
    1.6341   -5.3468   21.8123 C   0  0  0  0  0  0  0  0  0  0  0  0
    1.4850   -1.9942   20.9513 N   0  0  0  0  0  0  0  0  0  0  0  0
    1.0244   -1.7769   22.3151 C   0  0  0  0  0  0  0  0  0  0  0  0
    1.8817    1.2417   19.5804 C   0  0  0  0  0  0  0  0  0  0  0  0
    1.6089    3.3435   19.3023 H   0  0  0  0  0  0  0  0  0  0  0  0
    3.0555    3.4069   23.4508 H   0  0  0  0  0  0  0  0  0  0  0  0
    4.1904    0.7436   23.9476 H   0  0  0  0  0  0  0  0  0  0  0  0
    0.9613    2.4435   24.4423 H   0  0  0  0  0  0  0  0  0  0  0  0
   -1.0283    1.3820   25.4471 H   0  0  0  0  0  0  0  0  0  0  0  0
   -0.8285   -0.8104   26.5945 H   0  0  0  0  0  0  0  0  0  0  0  0
    1.3735   -1.9442   26.7202 H   0  0  0  0  0  0  0  0  0  0  0  0
    3.3668   -0.9083   25.7124 H   0  0  0  0  0  0  0  0  0  0  0  0
    4.2533    1.8776   26.3765 H   0  0  0  0  0  0  0  0  0  0  0  0
    5.3721    2.3819   25.0936 H   0  0  0  0  0  0  0  0  0  0  0  0
    3.9390    3.3586   25.4494 H   0  0  0  0  0  0  0  0  0  0  0  0
    5.5933   -0.8698   19.8526 H   0  0  0  0  0  0  0  0  0  0  0  0
    7.2249    0.0498   18.2406 H   0  0  0  0  0  0  0  0  0  0  0  0
    4.4356   -0.4932   15.0396 H   0  0  0  0  0  0  0  0  0  0  0  0
    2.7647   -1.4097   16.6193 H   0  0  0  0  0  0  0  0  0  0  0  0
    0.8336   -5.0296   19.8514 H   0  0  0  0  0  0  0  0  0  0  0  0
   -0.4188   -3.3420   22.0660 H   0  0  0  0  0  0  0  0  0  0  0  0
   -0.9616   -3.4898   20.4057 H   0  0  0  0  0  0  0  0  0  0  0  0
   -2.2534   -4.9287   22.0549 H   0  0  0  0  0  0  0  0  0  0  0  0
   -1.4864   -5.9075   20.7754 H   0  0  0  0  0  0  0  0  0  0  0  0
   -1.1523   -6.8009   22.9679 H   0  0  0  0  0  0  0  0  0  0  0  0
   -0.4422   -5.4218   23.4990 H   0  0  0  0  0  0  0  0  0  0  0  0
    1.1873   -7.0809   23.0392 H   0  0  0  0  0  0  0  0  0  0  0  0
    0.5770   -7.2013   21.3671 H   0  0  0  0  0  0  0  0  0  0  0  0
    2.5873   -5.7169   21.4153 H   0  0  0  0  0  0  0  0  0  0  0  0
    1.8804   -4.7735   22.7145 H   0  0  0  0  0  0  0  0  0  0  0  0
    1.7743   -2.1376   23.0268 H   0  0  0  0  0  0  0  0  0  0  0  0
    0.8324   -0.7174   22.5068 H   0  0  0  0  0  0  0  0  0  0  0  0
    0.0813   -2.3025   22.4935 H   0  0  0  0  0  0  0  0  0  0  0  0
    1.5411    0.9551   18.5939 H   0  0  0  0  0  0  0  0  0  0  0  0
 36  1  1  0
  1  2  2  0
  2  3  1  0
  3  4  1  0
  4 37  1  0
  4  5  1  0
  5 38  1  6
  5  6  1  0
  6  7  2  0
  7 39  1  0
  7  8  1  0
  8 40  1  0
  8  9  2  0
  9 41  1  0
  9 10  1  0
 10 42  1  0
  6 11  1  0
 10 11  2  0
 11 43  1  0
  5 12  1  0
 12 44  1  0
 12 45  1  0
 12 46  1  0
  3 13  2  0
 13 14  1  0
 14 15  1  0
 15 16  2  0
 16 17  1  0
 17 18  2  0
 18 47  1  0
 18 19  1  0
 19 48  1  0
 19 20  2  0
 20 21  1  0
 20 22  1  0
 22 49  1  0
 17 23  1  0
 22 23  2  0
 23 50  1  0
 16 24  1  0
 24 25  2  0
 24 26  1  0
 26 27  1  0
 27 51  1  0
 27 28  1  0
 28 52  1  0
 28 53  1  0
 28 29  1  0
 29 54  1  0
 29 55  1  0
 29 30  1  0
 30 56  1  0
 30 57  1  0
 30 31  1  0
 31 58  1  0
 31 59  1  0
 27 32  1  0
 31 32  1  0
 32 60  1  0
 32 61  1  0
 15 33  1  0
 26 33  1  0
 33 34  1  0
 34 62  1  0
 34 63  1  0
 34 64  1  0
  1 35  1  0
 14 35  2  0
 35 65  1  0
M  CHG  1  30   1
M  END
>  <conformer_energy>  (1) 
-11.64

>  <ligand_smiles>  (1) 
C[C@H](Nc1nccc(-c2c(-c3ccc(F)cc3)c(=O)n(C3CC[NH2+]CC3)n2C)n1)c1ccccc1

>  <ligand_conf_name>  (1) 
MOL_0_isomer_0_conf_0

>  <ligand_molecule_name>  (1) 
MOL_0_isomer_0

>  <aligned_conformer_energy>  (1) 
-8.615785762919135

>  <fragInfo>  (1) 
1 2 3 4 5 12 13 14 15 16 24 25 26 33 34 35 36 37 38 44 45 46 62 63 64 65
6 7 8 9 10 11 39 40 41 42 43
17 18 19 20 21 22 23 47 48 49 50
27 28 29 30 31 32 51 52 53 54 55 56 57 58 59 60 61


>  <torsionInfo>  (1) 
16 17 0 2
5 6 0 1
26 27 0 3


>  <atomInfo>  (1) 
1  0.033055  A 
2  -0.221617 NA
3  0.223223  A 
4  -0.347686 N 
5  0.051426  C 
6  -0.025949 A 
7  -0.056982 A 
8  -0.061917 A 
9  -0.062246 A 
10 -0.061917 A 
11 -0.056982 A 
12 -0.040479 C 
13 -0.211368 NA
14 0.094579  A 
15 0.096465  A 
16 0.075978  A 
17 -0.010333 A 
18 -0.051191 A 
19 -0.025702 A 
20 0.122751  A 
21 -0.207012 F 
22 -0.025702 A 
23 -0.051191 A 
24 0.275018  A 
25 -0.267065 OA
26 -0.246263 N 
27 0.064604  C 
28 0.019288  C 
29 0.077563  C 
30 -0.346118 N 
31 0.077563  C 
32 0.019288  C 
33 -0.282502 N 
34 0.028638  C 
35 -0.015528 A 
36 0.084213  H 
37 0.163818  HD
38 0.057713  H 
39 0.062639  H 
40 0.062280  H 
41 0.062269  H 
42 0.062280  H 
43 0.062639  H 
44 0.025485  H 
45 0.025485  H 
46 0.025485  H 
47 0.063034  H 
48 0.065380  H 
49 0.065380  H 
50 0.063034  H 
51 0.055731  H 
52 0.034673  H 
53 0.034673  H 
54 0.092352  H 
55 0.092352  H 
56 0.345809  HD
57 0.345809  HD
58 0.092352  H 
59 0.092352  H 
60 0.034673  H 
61 0.034673  H 
62 0.047818  H 
63 0.047818  H 
64 0.047818  H 
65 0.066275  H 


>  <torsionSamplingRangeInfo>  (1) 
TORSION 7 6 5 4
SMARTS [a:1][c:2]!@[CX4H1:3][N,O:4]
RANGE 0.0 100.0
RANGE 100.0 180.0
RANGE 180.0 -100.0
RANGE -100.0 0.0
HISTOGRAM 989.0 1407.0 1857.0 2225.0 2282.0 1942.0 1461.0 1050.0 866.0 829.0 1108.0 1585.0 2172.0 2380.0 2218.0 1832.0 1339.0 930.0 891.0 1253.0 1756.0 2241.0 2380.0 2166.0 1589.0 1067.0 843.0 868.0 1046.0 1465.0 1924.0 2253.0 2216.0 1966.0 1515.0 1027.0
TORSION 18 17 16 15
SMARTS [a:1][c:2]!@[CX3:3]=[CX3H0:4]
RANGE 30.0 90.0
RANGE -150.0 -90.0
RANGE 150.0 -150.0
RANGE -30.0 30.0
RANGE -90.0 -30.0
RANGE 90.0 150.0
HISTOGRAM 1630.0 801.0 952.0 1360.0 2018.0 1736.0 1128.0 798.0 656.0 667.0 805.0 1302.0 1985.0 2068.0 1298.0 811.0 721.0 1672.0 1584.0 730.0 846.0 1242.0 2029.0 1907.0 1194.0 834.0 674.0 658.0 776.0 1206.0 1863.0 2027.0 1393.0 946.0 768.0 1731.0
TORSION 24 26 27 51
SMARTS [$(C=O):1][NX3H0:2]!@[CX4H1:3][H:4]
RANGE -30.0 30.0
RANGE 160.0 -160.0
HISTOGRAM 579.0 183.0 69.0 13.0 4.0 5.0 1.0 0.0 7.0 6.0 8.0 6.0 17.0 43.0 107.0 198.0 336.0 623.0 615.0 364.0 214.0 105.0 44.0 14.0 6.0 1.0 7.0 6.0 5.0 3.0 3.0 4.0 20.0 77.0 202.0 590.0


> <Uni-Dock RESULT> 
ENERGY=  -11.015  LOWER_BOUND=    0.688  UPPER_BOUND=    1.094
INTER + INTRA:         -13.422
INTER:                 -12.615
INTRA:                  -0.807
UNBOUND:                -0.476
REMARK  -4.713 (kcal/mol)
Estimated Free Energy of Binding   : -4.713 (kcal/mol) [=(1)+(2)+(3)+(4)]
(1) Final Intermolecular Energy    : -5.168 (kcal/mol)
    Ligand - Receptor              : -5.168 (kcal/mol)
    Ligand - Flex side chains      : 0.000 (kcal/mol)
(2) Final Total Internal Energy    : -0.847 (kcal/mol)
    Ligand                         : -0.847 (kcal/mol)
    Flex   - Receptor              : 0.000 (kcal/mol)
    Flex   - Flex side chains      : 0.000 (kcal/mol)
(3) Torsional Free Energy          : 0.827 (kcal/mol)
(4) Unbound System's Energy        : -0.476 (kcal/mol)

$$$$
MOL_0_isomer_0_conf_0
     RDKit          3D

 65 69  0  0  0  0  0  0  0  0999 V2000
    1.8970    2.5617   20.0410 C   0  0  0  0  0  0  0  0  0  0  0  0
    2.3126    2.9472   21.2621 N   0  0  0  0  0  0  0  0  0  0  0  0
    2.7187    1.9896   22.1054 C   0  0  0  0  0  0  0  0  0  0  0  0
    3.1279    2.4100   23.3358 N   0  0  0  0  0  0  0  0  0  0  0  0
    3.5365    1.5129   24.3903 C   0  0  2  0  0  0  0  0  0  0  0  0
    2.3422    0.8501   25.0671 C   0  0  0  0  0  0  0  0  0  0  0  0
    2.4340   -0.4973   25.4584 C   0  0  0  0  0  0  0  0  0  0  0  0
    1.3740   -1.1265   26.1148 C   0  0  0  0  0  0  0  0  0  0  0  0
    0.2068   -0.4183   26.3903 C   0  0  0  0  0  0  0  0  0  0  0  0
    0.1009    0.9191   26.0150 C   0  0  0  0  0  0  0  0  0  0  0  0
    1.1625    1.5513   25.3639 C   0  0  0  0  0  0  0  0  0  0  0  0
    4.3368    2.3163   25.4212 C   0  0  0  0  0  0  0  0  0  0  0  0
    2.7330    0.6892   21.7946 N   0  0  0  0  0  0  0  0  0  0  0  0
    2.2886    0.3395   20.5696 C   0  0  0  0  0  0  0  0  0  0  0  0
    2.2741   -1.1018   20.2785 C   0  0  0  0  0  0  0  0  0  0  0  0
    3.0224   -1.7158   19.3381 C   0  0  0  0  0  0  0  0  0  0  0  0
    4.0008   -1.1757   18.3935 C   0  0  0  0  0  0  0  0  0  0  0  0
    3.6992   -1.0626   17.0259 C   0  0  0  0  0  0  0  0  0  0  0  0
    4.6403   -0.5493   16.1299 C   0  0  0  0  0  0  0  0  0  0  0  0
    5.8811   -0.1395   16.5994 C   0  0  0  0  0  0  0  0  0  0  0  0
    6.7829    0.3533   15.7413 F   0  0  0  0  0  0  0  0  0  0  0  0
    6.1977   -0.2299   17.9485 C   0  0  0  0  0  0  0  0  0  0  0  0
    5.2579   -0.7445   18.8452 C   0  0  0  0  0  0  0  0  0  0  0  0
    2.6377   -3.1553   19.4543 C   0  0  0  0  0  0  0  0  0  0  0  0
    2.9982   -4.0576   18.7142 O   0  0  0  0  0  0  0  0  0  0  0  0
    1.7438   -3.2713   20.5186 N   0  0  0  0  0  0  0  0  0  0  0  0
    0.9291   -4.4388   20.8122 C   0  0  0  0  0  0  0  0  0  0  0  0
   -0.4865   -4.0259   21.2488 C   0  0  0  0  0  0  0  0  0  0  0  0
   -1.3218   -5.2254   21.6510 C   0  0  0  0  0  0  0  0  0  0  0  0
   -0.5956   -5.9956   22.7012 N   0  0  0  0  0  4  0  0  0  0  0  0
    0.7333   -6.5041   22.2553 C   0  0  0  0  0  0  0  0  0  0  0  0
    1.6097   -5.3315   21.8612 C   0  0  0  0  0  0  0  0  0  0  0  0
    1.4676   -1.9871   20.9977 N   0  0  0  0  0  0  0  0  0  0  0  0
    1.0183   -1.7748   22.3660 C   0  0  0  0  0  0  0  0  0  0  0  0
    1.8563    1.2539   19.6365 C   0  0  0  0  0  0  0  0  0  0  0  0
    1.5833    3.3570   19.3689 H   0  0  0  0  0  0  0  0  0  0  0  0
    3.0637    3.4025   23.5058 H   0  0  0  0  0  0  0  0  0  0  0  0
    4.2000    0.7362   23.9827 H   0  0  0  0  0  0  0  0  0  0  0  0
    3.3438   -1.0611   25.2618 H   0  0  0  0  0  0  0  0  0  0  0  0
    1.4665   -2.1634   26.4260 H   0  0  0  0  0  0  0  0  0  0  0  0
   -0.6149   -0.9008   26.9131 H   0  0  0  0  0  0  0  0  0  0  0  0
   -0.8039    1.4785   26.2403 H   0  0  0  0  0  0  0  0  0  0  0  0
    1.0624    2.5996   25.0905 H   0  0  0  0  0  0  0  0  0  0  0  0
    4.2836    1.8604   26.4155 H   0  0  0  0  0  0  0  0  0  0  0  0
    5.3925    2.3688   25.1255 H   0  0  0  0  0  0  0  0  0  0  0  0
    3.9634    3.3454   25.4968 H   0  0  0  0  0  0  0  0  0  0  0  0
    2.7260   -1.3631   16.6402 H   0  0  0  0  0  0  0  0  0  0  0  0
    4.4105   -0.4630   15.0722 H   0  0  0  0  0  0  0  0  0  0  0  0
    7.1712    0.1043   18.2938 H   0  0  0  0  0  0  0  0  0  0  0  0
    5.5199   -0.8019   19.8998 H   0  0  0  0  0  0  0  0  0  0  0  0
    0.8181   -5.0263   19.8948 H   0  0  0  0  0  0  0  0  0  0  0  0
   -0.4490   -3.3301   22.0946 H   0  0  0  0  0  0  0  0  0  0  0  0
   -0.9833   -3.4877   20.4324 H   0  0  0  0  0  0  0  0  0  0  0  0
   -2.2799   -4.9211   22.0826 H   0  0  0  0  0  0  0  0  0  0  0  0
   -1.5044   -5.9047   20.8119 H   0  0  0  0  0  0  0  0  0  0  0  0
   -1.1790   -6.7861   23.0106 H   0  0  0  0  0  0  0  0  0  0  0  0
   -0.4747   -5.4027   23.5381 H   0  0  0  0  0  0  0  0  0  0  0  0
    1.1608   -7.0603   23.0948 H   0  0  0  0  0  0  0  0  0  0  0  0
    0.5590   -7.1907   21.4203 H   0  0  0  0  0  0  0  0  0  0  0  0
    2.5656   -5.7014   21.4708 H   0  0  0  0  0  0  0  0  0  0  0  0
    1.8503   -4.7530   22.7616 H   0  0  0  0  0  0  0  0  0  0  0  0
    1.7736   -2.1390   23.0701 H   0  0  0  0  0  0  0  0  0  0  0  0
    0.8288   -0.7158   22.5634 H   0  0  0  0  0  0  0  0  0  0  0  0
    0.0761   -2.3001   22.5499 H   0  0  0  0  0  0  0  0  0  0  0  0
    1.5074    0.9715   18.6516 H   0  0  0  0  0  0  0  0  0  0  0  0
 36  1  1  0
  1  2  2  0
  2  3  1  0
  3  4  1  0
  4 37  1  0
  4  5  1  0
  5 38  1  6
  5  6  1  0
  6  7  2  0
  7 39  1  0
  7  8  1  0
  8 40  1  0
  8  9  2  0
  9 41  1  0
  9 10  1  0
 10 42  1  0
  6 11  1  0
 10 11  2  0
 11 43  1  0
  5 12  1  0
 12 44  1  0
 12 45  1  0
 12 46  1  0
  3 13  2  0
 13 14  1  0
 14 15  1  0
 15 16  2  0
 16 17  1  0
 17 18  2  0
 18 47  1  0
 18 19  1  0
 19 48  1  0
 19 20  2  0
 20 21  1  0
 20 22  1  0
 22 49  1  0
 17 23  1  0
 22 23  2  0
 23 50  1  0
 16 24  1  0
 24 25  2  0
 24 26  1  0
 26 27  1  0
 27 51  1  0
 27 28  1  0
 28 52  1  0
 28 53  1  0
 28 29  1  0
 29 54  1  0
 29 55  1  0
 29 30  1  0
 30 56  1  0
 30 57  1  0
 30 31  1  0
 31 58  1  0
 31 59  1  0
 27 32  1  0
 31 32  1  0
 32 60  1  0
 32 61  1  0
 15 33  1  0
 26 33  1  0
 33 34  1  0
 34 62  1  0
 34 63  1  0
 34 64  1  0
  1 35  1  0
 14 35  2  0
 35 65  1  0
M  CHG  1  30   1
M  END
>  <conformer_energy>  (1) 
-11.64

>  <ligand_smiles>  (1) 
C[C@H](Nc1nccc(-c2c(-c3ccc(F)cc3)c(=O)n(C3CC[NH2+]CC3)n2C)n1)c1ccccc1

>  <ligand_conf_name>  (1) 
MOL_0_isomer_0_conf_0

>  <ligand_molecule_name>  (1) 
MOL_0_isomer_0

>  <aligned_conformer_energy>  (1) 
-8.615785762919135

>  <fragInfo>  (1) 
1 2 3 4 5 12 13 14 15 16 24 25 26 33 34 35 36 37 38 44 45 46 62 63 64 65
6 7 8 9 10 11 39 40 41 42 43
17 18 19 20 21 22 23 47 48 49 50
27 28 29 30 31 32 51 52 53 54 55 56 57 58 59 60 61


>  <torsionInfo>  (1) 
16 17 0 2
5 6 0 1
26 27 0 3


>  <atomInfo>  (1) 
1  0.033055  A 
2  -0.221617 NA
3  0.223223  A 
4  -0.347686 N 
5  0.051426  C 
6  -0.025949 A 
7  -0.056982 A 
8  -0.061917 A 
9  -0.062246 A 
10 -0.061917 A 
11 -0.056982 A 
12 -0.040479 C 
13 -0.211368 NA
14 0.094579  A 
15 0.096465  A 
16 0.075978  A 
17 -0.010333 A 
18 -0.051191 A 
19 -0.025702 A 
20 0.122751  A 
21 -0.207012 F 
22 -0.025702 A 
23 -0.051191 A 
24 0.275018  A 
25 -0.267065 OA
26 -0.246263 N 
27 0.064604  C 
28 0.019288  C 
29 0.077563  C 
30 -0.346118 N 
31 0.077563  C 
32 0.019288  C 
33 -0.282502 N 
34 0.028638  C 
35 -0.015528 A 
36 0.084213  H 
37 0.163818  HD
38 0.057713  H 
39 0.062639  H 
40 0.062280  H 
41 0.062269  H 
42 0.062280  H 
43 0.062639  H 
44 0.025485  H 
45 0.025485  H 
46 0.025485  H 
47 0.063034  H 
48 0.065380  H 
49 0.065380  H 
50 0.063034  H 
51 0.055731  H 
52 0.034673  H 
53 0.034673  H 
54 0.092352  H 
55 0.092352  H 
56 0.345809  HD
57 0.345809  HD
58 0.092352  H 
59 0.092352  H 
60 0.034673  H 
61 0.034673  H 
62 0.047818  H 
63 0.047818  H 
64 0.047818  H 
65 0.066275  H 


>  <torsionSamplingRangeInfo>  (1) 
TORSION 7 6 5 4
SMARTS [a:1][c:2]!@[CX4H1:3][N,O:4]
RANGE 0.0 100.0
RANGE 100.0 180.0
RANGE 180.0 -100.0
RANGE -100.0 0.0
HISTOGRAM 989.0 1407.0 1857.0 2225.0 2282.0 1942.0 1461.0 1050.0 866.0 829.0 1108.0 1585.0 2172.0 2380.0 2218.0 1832.0 1339.0 930.0 891.0 1253.0 1756.0 2241.0 2380.0 2166.0 1589.0 1067.0 843.0 868.0 1046.0 1465.0 1924.0 2253.0 2216.0 1966.0 1515.0 1027.0
TORSION 18 17 16 15
SMARTS [a:1][c:2]!@[CX3:3]=[CX3H0:4]
RANGE 30.0 90.0
RANGE -150.0 -90.0
RANGE 150.0 -150.0
RANGE -30.0 30.0
RANGE -90.0 -30.0
RANGE 90.0 150.0
HISTOGRAM 1630.0 801.0 952.0 1360.0 2018.0 1736.0 1128.0 798.0 656.0 667.0 805.0 1302.0 1985.0 2068.0 1298.0 811.0 721.0 1672.0 1584.0 730.0 846.0 1242.0 2029.0 1907.0 1194.0 834.0 674.0 658.0 776.0 1206.0 1863.0 2027.0 1393.0 946.0 768.0 1731.0
TORSION 24 26 27 51
SMARTS [$(C=O):1][NX3H0:2]!@[CX4H1:3][H:4]
RANGE -30.0 30.0
RANGE 160.0 -160.0
HISTOGRAM 579.0 183.0 69.0 13.0 4.0 5.0 1.0 0.0 7.0 6.0 8.0 6.0 17.0 43.0 107.0 198.0 336.0 623.0 615.0 364.0 214.0 105.0 44.0 14.0 6.0 1.0 7.0 6.0 5.0 3.0 3.0 4.0 20.0 77.0 202.0 590.0


> <Uni-Dock RESULT> 
ENERGY=  -10.965  LOWER_BOUND=    0.702  UPPER_BOUND=    1.547
INTER + INTRA:         -13.364
INTER:                 -12.478
INTRA:                  -0.885
UNBOUND:                -0.476
REMARK  -4.713 (kcal/mol)
Estimated Free Energy of Binding   : -4.713 (kcal/mol) [=(1)+(2)+(3)+(4)]
(1) Final Intermolecular Energy    : -5.168 (kcal/mol)
    Ligand - Receptor              : -5.168 (kcal/mol)
    Ligand - Flex side chains      : 0.000 (kcal/mol)
(2) Final Total Internal Energy    : -0.847 (kcal/mol)
    Ligand                         : -0.847 (kcal/mol)
    Flex   - Receptor              : 0.000 (kcal/mol)
    Flex   - Flex side chains      : 0.000 (kcal/mol)
(3) Torsional Free Energy          : 0.827 (kcal/mol)
(4) Unbound System's Energy        : -0.476 (kcal/mol)

$$$$
