MOL37_conf_000_conf_0
     RDKit          3D

 47 50  0  0  0  0  0  0  0  0999 V2000
    5.6221   -1.1561   -0.7384 C   0  0  0  0  0  0  0  0  0  0  0  0
    5.0889    0.2048   -1.1650 C   0  0  0  0  0  0  0  0  0  0  0  0
    3.9730    0.1295   -2.1992 C   0  0  0  0  0  0  0  0  0  0  0  0
    2.5554    0.0762   -1.6937 N   0  0  2  0  0  4  0  0  0  0  0  0
    1.9827    1.3152   -1.0371 C   0  0  2  0  0  0  0  0  0  0  0  0
    2.2233    1.1118    0.4554 C   0  0  0  0  0  0  0  0  0  0  0  0
    2.3515   -0.3910    0.6484 C   0  0  0  0  0  0  0  0  0  0  0  0
    2.1281   -1.0037   -0.7315 C   0  0  1  0  0  0  0  0  0  0  0  0
    0.6437   -1.2785   -0.9954 C   0  0  0  0  0  0  0  0  0  0  0  0
   -0.2058   -0.0440   -1.3872 C   0  0  1  0  0  0  0  0  0  0  0  0
   -1.4828   -0.0149   -0.6882 N   0  0  0  0  0  0  0  0  0  0  0  0
   -1.6294    0.1225    0.6653 C   0  0  0  0  0  0  0  0  0  0  0  0
   -0.7424    0.2306    1.4915 O   0  0  0  0  0  0  0  0  0  0  0  0
   -3.0633    0.1241    0.9379 C   0  0  0  0  0  0  0  0  0  0  0  0
   -3.7396    0.2307    2.1339 C   0  0  0  0  0  0  0  0  0  0  0  0
   -5.1351    0.2046    2.0700 C   0  0  0  0  0  0  0  0  0  0  0  0
   -5.8252    0.0756    0.8331 C   0  0  0  0  0  0  0  0  0  0  0  0
   -7.3411    0.0527    0.8017 C   0  0  0  0  0  0  0  0  0  0  0  0
   -7.9359    0.1528    1.9171 O   0  0  0  0  0  0  0  0  0  0  0  0
   -7.8816   -0.0643   -0.3397 O   0  0  0  0  0  1  0  0  0  0  0  0
   -5.0916   -0.0300   -0.3640 C   0  0  0  0  0  0  0  0  0  0  0  0
   -3.7177   -0.0029   -0.2768 C   0  0  0  0  0  0  0  0  0  0  0  0
   -2.6981   -0.0855   -1.3216 C   0  0  0  0  0  0  0  0  0  0  0  0
   -2.8956   -0.1882   -2.5172 O   0  0  0  0  0  0  0  0  0  0  0  0
    0.4881    1.3402   -1.3654 C   0  0  0  0  0  0  0  0  0  0  0  0
    5.9859   -1.7198   -1.6038 H   0  0  0  0  0  0  0  0  0  0  0  0
    4.8685   -1.7619   -0.2332 H   0  0  0  0  0  0  0  0  0  0  0  0
    6.4624   -1.0278   -0.0482 H   0  0  0  0  0  0  0  0  0  0  0  0
    4.8184    0.8006   -0.2934 H   0  0  0  0  0  0  0  0  0  0  0  0
    5.9302    0.7348   -1.6309 H   0  0  0  0  0  0  0  0  0  0  0  0
    4.0975   -0.7446   -2.8489 H   0  0  0  0  0  0  0  0  0  0  0  0
    4.0125    1.0159   -2.8432 H   0  0  0  0  0  0  0  0  0  0  0  0
    2.0396   -0.0712   -2.5726 H   0  0  0  0  0  0  0  0  0  0  0  0
    2.4882    2.2044   -1.4277 H   0  0  0  0  0  0  0  0  0  0  0  0
    3.1436    1.6134    0.7724 H   0  0  0  0  0  0  0  0  0  0  0  0
    1.4271    1.5402    1.0714 H   0  0  0  0  0  0  0  0  0  0  0  0
    1.6517   -0.7735    1.3973 H   0  0  0  0  0  0  0  0  0  0  0  0
    3.3513   -0.6269    1.0257 H   0  0  0  0  0  0  0  0  0  0  0  0
    2.7214   -1.9060   -0.9045 H   0  0  0  0  0  0  0  0  0  0  0  0
    0.5817   -1.9912   -1.8306 H   0  0  0  0  0  0  0  0  0  0  0  0
    0.2098   -1.8176   -0.1442 H   0  0  0  0  0  0  0  0  0  0  0  0
   -0.4550   -0.2082   -2.4458 H   0  0  0  0  0  0  0  0  0  0  0  0
   -3.2235    0.3307    3.0813 H   0  0  0  0  0  0  0  0  0  0  0  0
   -5.7222    0.2854    2.9867 H   0  0  0  0  0  0  0  0  0  0  0  0
   -5.6029   -0.1283   -1.3186 H   0  0  0  0  0  0  0  0  0  0  0  0
    0.3728    1.7792   -2.3668 H   0  0  0  0  0  0  0  0  0  0  0  0
   -0.0272    2.0404   -0.6958 H   0  0  0  0  0  0  0  0  0  0  0  0
  1  2  1  0
  2  3  1  0
  3  4  1  0
  4  5  1  0
  5  6  1  0
  6  7  1  0
  7  8  1  0
  8  9  1  0
  9 10  1  0
 10 11  1  0
 11 12  1  0
 12 13  2  0
 12 14  1  0
 14 15  2  0
 15 16  1  0
 16 17  2  0
 17 18  1  0
 18 19  2  0
 18 20  1  0
 17 21  1  0
 21 22  2  0
 22 23  1  0
 23 24  2  0
 10 25  1  0
  8  4  1  0
 23 11  1  0
 25  5  1  0
 22 14  1  0
  1 26  1  0
  1 27  1  0
  1 28  1  0
  2 29  1  0
  2 30  1  0
  3 31  1  0
  3 32  1  0
  4 33  1  6
  5 34  1  6
  6 35  1  0
  6 36  1  0
  7 37  1  0
  7 38  1  0
  8 39  1  1
  9 40  1  0
  9 41  1  0
 10 42  1  6
 15 43  1  0
 16 44  1  0
 21 45  1  0
 25 46  1  0
 25 47  1  0
M  CHG  2   4   1  20  -1
M  END
>  <Conformer_Energy>  (1) 
1.82

>  <isomer_smiles>  (1) 
CCC[N@@H+]1[C@@H]2CC[C@H]1C[C@@H](N1C(=O)c3ccc(C(=O)[O-])cc3C1=O)C2

>  <fragInfo>  (1) 
4 5 6 7 8 9 10 25 33 34 35 36 37 38 39 40 41 42 46 47
1 26 27 28
2 29 30
3 31 32
11 12 13 14 15 16 17 21 22 23 24 43 44 45
18 19 20

>  <torsionInfo>  (1) 
3 4 3 0
10 11 0 4
1 2 1 2
2 3 2 3
17 18 4 5

>  <atomInfo>  (1) 
1  -0.060023 C 
2  -0.006351 C 
3  0.077193  C 
4  -0.329951 N 
5  0.089870  C 
6  0.005088  C 
7  0.005088  C 
8  0.089870  C 
9  0.020746  C 
10 0.051605  C 
11 -0.270741 N 
12 0.261315  C 
13 -0.268558 OA
14 0.052812  A 
15 -0.047964 A 
16 -0.052320 A 
17 -0.002019 A 
18 0.071507  C 
19 -0.544815 OA
20 -0.544815 OA
21 -0.039526 A 
22 0.053426  A 
23 0.261337  C 
24 -0.268557 OA
25 0.020746  C 
26 0.023253  H 
27 0.023253  H 
28 0.023253  H 
29 0.032155  H 
30 0.032155  H 
31 0.092348  H 
32 0.092348  H 
33 0.348089  HD
34 0.096195  H 
35 0.032997  H 
36 0.032997  H 
37 0.032997  H 
38 0.032997  H 
39 0.096195  H 
40 0.034931  H 
41 0.034931  H 
42 0.054105  H 
43 0.063153  H 
44 0.062993  H 
45 0.063831  H 
46 0.034931  H 
47 0.034931  H 

>  <torsionSamplingRangeInfo>  (1) 
0 1 2 3
160.0 -160.0
40.0 80.0
-80.0 -40.0
0 1 2 30
160.0 -160.0
40.0 80.0
-80.0 -40.0
0 1 2 31
160.0 -160.0
40.0 80.0
-80.0 -40.0
2 1 0 25
160.0 -160.0
40.0 80.0
-80.0 -40.0
2 1 0 26
160.0 -160.0
40.0 80.0
-80.0 -40.0
2 1 0 27
160.0 -160.0
40.0 80.0
-80.0 -40.0
3 2 1 28
160.0 -160.0
40.0 80.0
-80.0 -40.0
3 2 1 29
160.0 -160.0
40.0 80.0
-80.0 -40.0
25 0 1 28
160.0 -160.0
40.0 80.0
-80.0 -40.0
25 0 1 29
160.0 -160.0
40.0 80.0
-80.0 -40.0
26 0 1 28
160.0 -160.0
40.0 80.0
-80.0 -40.0
26 0 1 29
160.0 -160.0
40.0 80.0
-80.0 -40.0
27 0 1 28
160.0 -160.0
40.0 80.0
-80.0 -40.0
27 0 1 29
160.0 -160.0
40.0 80.0
-80.0 -40.0
28 1 2 30
160.0 -160.0
40.0 80.0
-80.0 -40.0
28 1 2 31
160.0 -160.0
40.0 80.0
-80.0 -40.0
29 1 2 30
160.0 -160.0
40.0 80.0
-80.0 -40.0
29 1 2 31
160.0 -160.0
40.0 80.0
-80.0 -40.0
18 17 16 15
160.0 -160.0
-20.0 20.0
18 17 16 20
160.0 -160.0
-20.0 20.0
19 17 16 15
160.0 -160.0
-20.0 20.0
19 17 16 20
160.0 -160.0
-20.0 20.0
1 2 3 4
150.0 -150.0
40.0 80.0
-80.0 -40.0
1 2 3 7
150.0 -150.0
40.0 80.0
-80.0 -40.0
1 2 3 32
150.0 -150.0
40.0 80.0
-80.0 -40.0
30 2 3 4
150.0 -150.0
40.0 80.0
-80.0 -40.0
30 2 3 7
150.0 -150.0
40.0 80.0
-80.0 -40.0
30 2 3 32
150.0 -150.0
40.0 80.0
-80.0 -40.0
31 2 3 4
150.0 -150.0
40.0 80.0
-80.0 -40.0
31 2 3 7
150.0 -150.0
40.0 80.0
-80.0 -40.0
31 2 3 32
150.0 -150.0
40.0 80.0
-80.0 -40.0
8 9 10 11
-80.0 -40.0
40.0 80.0
160.0 -160.0
8 9 10 22
-80.0 -40.0
40.0 80.0
160.0 -160.0
24 9 10 11
-80.0 -40.0
40.0 80.0
160.0 -160.0
24 9 10 22
-80.0 -40.0
40.0 80.0
160.0 -160.0
41 9 10 11
-80.0 -40.0
40.0 80.0
160.0 -160.0
41 9 10 22
-80.0 -40.0
40.0 80.0
160.0 -160.0
0 1 2 3
150.0 -150.0
30.0 90.0
-90.0 -30.0
0 1 2 30
150.0 -150.0
30.0 90.0
-90.0 -30.0
0 1 2 31
150.0 -150.0
30.0 90.0
-90.0 -30.0
1 2 3 4
150.0 -150.0
30.0 90.0
-90.0 -30.0
1 2 3 7
150.0 -150.0
30.0 90.0
-90.0 -30.0
1 2 3 32
150.0 -150.0
30.0 90.0
-90.0 -30.0
2 1 0 25
150.0 -150.0
30.0 90.0
-90.0 -30.0
2 1 0 26
150.0 -150.0
30.0 90.0
-90.0 -30.0
2 1 0 27
150.0 -150.0
30.0 90.0
-90.0 -30.0
3 2 1 28
150.0 -150.0
30.0 90.0
-90.0 -30.0
3 2 1 29
150.0 -150.0
30.0 90.0
-90.0 -30.0
4 3 2 30
150.0 -150.0
30.0 90.0
-90.0 -30.0
4 3 2 31
150.0 -150.0
30.0 90.0
-90.0 -30.0
7 3 2 30
150.0 -150.0
30.0 90.0
-90.0 -30.0
7 3 2 31
150.0 -150.0
30.0 90.0
-90.0 -30.0
25 0 1 28
150.0 -150.0
30.0 90.0
-90.0 -30.0
25 0 1 29
150.0 -150.0
30.0 90.0
-90.0 -30.0
26 0 1 28
150.0 -150.0
30.0 90.0
-90.0 -30.0
26 0 1 29
150.0 -150.0
30.0 90.0
-90.0 -30.0
27 0 1 28
150.0 -150.0
30.0 90.0
-90.0 -30.0
27 0 1 29
150.0 -150.0
30.0 90.0
-90.0 -30.0
28 1 2 30
150.0 -150.0
30.0 90.0
-90.0 -30.0
28 1 2 31
150.0 -150.0
30.0 90.0
-90.0 -30.0
29 1 2 30
150.0 -150.0
30.0 90.0
-90.0 -30.0
29 1 2 31
150.0 -150.0
30.0 90.0
-90.0 -30.0
30 2 3 32
150.0 -150.0
30.0 90.0
-90.0 -30.0
31 2 3 32
150.0 -150.0
30.0 90.0
-90.0 -30.0
8 9 10 11
evenly_distributed
8 9 10 22
evenly_distributed
24 9 10 11
evenly_distributed
24 9 10 22
evenly_distributed
41 9 10 11
evenly_distributed
41 9 10 22
evenly_distributed
15 16 17 18
160.0 -160.0
-20.0 20.0
15 16 17 19
160.0 -160.0
-20.0 20.0
18 17 16 20
160.0 -160.0
-20.0 20.0
19 17 16 20
160.0 -160.0
-20.0 20.0
0 1 2 3
160.0 -160.0
-80.0 -40.0
40.0 80.0
0 1 2 3
160.0 -160.0
-80.0 -40.0
40.0 80.0
15 16 17 18
-30.0 30.0
150.0 -150.0
20 16 17 18
-30.0 30.0
150.0 -150.0
11 10 9 41
-30.0 30.0
160.0 -160.0
22 10 9 41
-30.0 30.0
160.0 -160.0
11 10 9 8
-130.0 -50.0
170.0 -170.0
50.0 130.0
-10.0 10.0
11 10 9 24
-130.0 -50.0
170.0 -170.0
50.0 130.0
-10.0 10.0
22 10 9 8
-130.0 -50.0
170.0 -170.0
50.0 130.0
-10.0 10.0
22 10 9 24
-130.0 -50.0
170.0 -170.0
50.0 130.0
-10.0 10.0
8 9 10 11
50.0 90.0
-90.0 -50.0
130.0 -130.0
8 9 10 22
50.0 90.0
-90.0 -50.0
130.0 -130.0
24 9 10 11
50.0 90.0
-90.0 -50.0
130.0 -130.0
24 9 10 22
50.0 90.0
-90.0 -50.0
130.0 -130.0
8 9 10 11
30.0 110.0
-110.0 -30.0
140.0 -140.0
8 9 10 22
30.0 110.0
-110.0 -30.0
140.0 -140.0
24 9 10 11
30.0 110.0
-110.0 -30.0
140.0 -140.0
24 9 10 22
30.0 110.0
-110.0 -30.0
140.0 -140.0
8 9 10 11
40.0 100.0
-100.0 -40.0
170.0 -170.0
110.0 170.0
-170.0 -110.0
-30.0 30.0
8 9 10 22
40.0 100.0
-100.0 -40.0
170.0 -170.0
110.0 170.0
-170.0 -110.0
-30.0 30.0
24 9 10 11
40.0 100.0
-100.0 -40.0
170.0 -170.0
110.0 170.0
-170.0 -110.0
-30.0 30.0
24 9 10 22
40.0 100.0
-100.0 -40.0
170.0 -170.0
110.0 170.0
-170.0 -110.0
-30.0 30.0


$$$$
