MOL_0_isomer_0_conf_0
     RDKit          3D

 65 69  0  0  0  0  0  0  0  0999 V2000
    2.6421    2.6969   20.1879 C   0  0  0  0  0  0  0  0  0  0  0  0
    2.8996    3.1586   21.4260 N   0  0  0  0  0  0  0  0  0  0  0  0
    3.0628    2.2537   22.3994 C   0  0  0  0  0  0  0  0  0  0  0  0
    3.3164    2.7515   23.6428 N   0  0  0  0  0  0  0  0  0  0  0  0
    3.4553    1.9267   24.8193 C   0  0  2  0  0  0  0  0  0  0  0  0
    2.1052    1.4467   25.3394 C   0  0  0  0  0  0  0  0  0  0  0  0
    2.0181    0.1945   25.9729 C   0  0  0  0  0  0  0  0  0  0  0  0
    0.8057   -0.2612   26.4954 C   0  0  0  0  0  0  0  0  0  0  0  0
   -0.3373    0.5279   26.3929 C   0  0  0  0  0  0  0  0  0  0  0  0
   -0.2678    1.7739   25.7736 C   0  0  0  0  0  0  0  0  0  0  0  0
    0.9452    2.2335   25.2561 C   0  0  0  0  0  0  0  0  0  0  0  0
    4.1654    2.7483   25.9007 C   0  0  0  0  0  0  0  0  0  0  0  0
    2.9858    0.9336   22.2011 N   0  0  0  0  0  0  0  0  0  0  0  0
    2.7044    0.5097   20.9515 C   0  0  0  0  0  0  0  0  0  0  0  0
    2.5808   -0.9454   20.7791 C   0  0  0  0  0  0  0  0  0  0  0  0
    3.3972   -1.7147   20.0286 C   0  0  0  0  0  0  0  0  0  0  0  0
    4.5642   -1.3621   19.2193 C   0  0  0  0  0  0  0  0  0  0  0  0
    5.5814   -0.5422   19.7362 C   0  0  0  0  0  0  0  0  0  0  0  0
    6.6906   -0.2071   18.9556 C   0  0  0  0  0  0  0  0  0  0  0  0
    6.7906   -0.6976   17.6605 C   0  0  0  0  0  0  0  0  0  0  0  0
    7.8537   -0.3775   16.9125 F   0  0  0  0  0  0  0  0  0  0  0  0
    5.8041   -1.5198   17.1320 C   0  0  0  0  0  0  0  0  0  0  0  0
    4.6936   -1.8543   17.9112 C   0  0  0  0  0  0  0  0  0  0  0  0
    2.8464   -3.0940   20.1949 C   0  0  0  0  0  0  0  0  0  0  0  0
    3.2195   -4.0935   19.6001 O   0  0  0  0  0  0  0  0  0  0  0  0
    1.7891   -3.0226   21.1017 N   0  0  0  0  0  0  0  0  0  0  0  0
    0.8176   -4.0752   21.3489 C   0  0  0  0  0  0  0  0  0  0  0  0
    1.4997   -5.3307   21.9175 C   0  0  0  0  0  0  0  0  0  0  0  0
    0.5177   -6.4723   22.0924 C   0  0  0  0  0  0  0  0  0  0  0  0
   -0.1704   -6.7272   20.7943 N   0  0  0  0  0  4  0  0  0  0  0  0
   -0.9346   -5.5528   20.2844 C   0  0  0  0  0  0  0  0  0  0  0  0
    0.0165   -4.3907   20.0763 C   0  0  0  0  0  0  0  0  0  0  0  0
    1.5808   -1.6779   21.4232 N   0  0  0  0  0  0  0  0  0  0  0  0
    0.9476   -1.2930   22.6762 C   0  0  0  0  0  0  0  0  0  0  0  0
    2.5250    1.3655   19.8889 C   0  0  0  0  0  0  0  0  0  0  0  0
    2.5253    3.4490   19.4112 H   0  0  0  0  0  0  0  0  0  0  0  0
    3.3334    3.7574   23.7192 H   0  0  0  0  0  0  0  0  0  0  0  0
    4.0871    1.0558   24.5915 H   0  0  0  0  0  0  0  0  0  0  0  0
    2.9045   -0.4288   26.0724 H   0  0  0  0  0  0  0  0  0  0  0  0
    0.7580   -1.2238   26.9972 H   0  0  0  0  0  0  0  0  0  0  0  0
   -1.2794    0.1824   26.8104 H   0  0  0  0  0  0  0  0  0  0  0  0
   -1.1554    2.3981   25.7036 H   0  0  0  0  0  0  0  0  0  0  0  0
    0.9789    3.2146   24.7871 H   0  0  0  0  0  0  0  0  0  0  0  0
    3.9079    2.3979   26.9058 H   0  0  0  0  0  0  0  0  0  0  0  0
    5.2539    2.6734   25.7813 H   0  0  0  0  0  0  0  0  0  0  0  0
    3.8976    3.8102   25.8301 H   0  0  0  0  0  0  0  0  0  0  0  0
    5.5299   -0.1607   20.7550 H   0  0  0  0  0  0  0  0  0  0  0  0
    7.4769    0.4282   19.3520 H   0  0  0  0  0  0  0  0  0  0  0  0
    5.9077   -1.8981   16.1197 H   0  0  0  0  0  0  0  0  0  0  0  0
    3.9334   -2.5052   17.4838 H   0  0  0  0  0  0  0  0  0  0  0  0
    0.1119   -3.7267   22.1102 H   0  0  0  0  0  0  0  0  0  0  0  0
    2.3103   -5.6680   21.2617 H   0  0  0  0  0  0  0  0  0  0  0  0
    1.9656   -5.0941   22.8819 H   0  0  0  0  0  0  0  0  0  0  0  0
    1.0257   -7.3998   22.3727 H   0  0  0  0  0  0  0  0  0  0  0  0
   -0.2544   -6.2461   22.8352 H   0  0  0  0  0  0  0  0  0  0  0  0
   -0.8055   -7.5317   20.8960 H   0  0  0  0  0  0  0  0  0  0  0  0
    0.5261   -7.0178   20.0893 H   0  0  0  0  0  0  0  0  0  0  0  0
   -1.4040   -5.8602   19.3452 H   0  0  0  0  0  0  0  0  0  0  0  0
   -1.7143   -5.3243   21.0184 H   0  0  0  0  0  0  0  0  0  0  0  0
   -0.5485   -3.5042   19.7633 H   0  0  0  0  0  0  0  0  0  0  0  0
    0.6916   -4.6320   19.2461 H   0  0  0  0  0  0  0  0  0  0  0  0
    1.5392   -1.6560   23.5231 H   0  0  0  0  0  0  0  0  0  0  0  0
    0.8445   -0.2069   22.7535 H   0  0  0  0  0  0  0  0  0  0  0  0
   -0.0628   -1.7081   22.7428 H   0  0  0  0  0  0  0  0  0  0  0  0
    2.3069    1.0227   18.8858 H   0  0  0  0  0  0  0  0  0  0  0  0
 36  1  1  0
  1  2  2  0
  2  3  1  0
  3  4  1  0
  4 37  1  0
  4  5  1  0
  5 38  1  6
  5  6  1  0
  6  7  2  0
  7 39  1  0
  7  8  1  0
  8 40  1  0
  8  9  2  0
  9 41  1  0
  9 10  1  0
 10 42  1  0
  6 11  1  0
 10 11  2  0
 11 43  1  0
  5 12  1  0
 12 44  1  0
 12 45  1  0
 12 46  1  0
  3 13  2  0
 13 14  1  0
 14 15  1  0
 15 16  2  0
 16 17  1  0
 17 18  2  0
 18 47  1  0
 18 19  1  0
 19 48  1  0
 19 20  2  0
 20 21  1  0
 20 22  1  0
 22 49  1  0
 17 23  1  0
 22 23  2  0
 23 50  1  0
 16 24  1  0
 24 25  2  0
 24 26  1  0
 26 27  1  0
 27 51  1  0
 27 28  1  0
 28 52  1  0
 28 53  1  0
 28 29  1  0
 29 54  1  0
 29 55  1  0
 29 30  1  0
 30 56  1  0
 30 57  1  0
 30 31  1  0
 31 58  1  0
 31 59  1  0
 27 32  1  0
 31 32  1  0
 32 60  1  0
 32 61  1  0
 15 33  1  0
 26 33  1  0
 33 34  1  0
 34 62  1  0
 34 63  1  0
 34 64  1  0
  1 35  1  0
 14 35  2  0
 35 65  1  0
M  CHG  1  30   1
M  END
>  <conformer_energy>  (1) 
-11.64

>  <ligand_smiles>  (1) 
C[C@H](Nc1nccc(-c2c(-c3ccc(F)cc3)c(=O)n(C3CC[NH2+]CC3)n2C)n1)c1ccccc1

>  <ligand_conf_name>  (1) 
MOL_0_isomer_0_conf_0

>  <ligand_molecule_name>  (1) 
MOL_0_isomer_0

>  <aligned_conformer_energy>  (1) 
-8.615785762919135

>  <fragInfo>  (1) 
1 2 3 4 5 12 13 14 15 16 24 25 26 33 34 35 36 37 38 44 45 46 62 63 64 65
6 7 8 9 10 11 39 40 41 42 43
17 18 19 20 21 22 23 47 48 49 50
27 28 29 30 31 32 51 52 53 54 55 56 57 58 59 60 61


>  <torsionInfo>  (1) 
16 17 0 2
5 6 0 1
26 27 0 3


>  <atomInfo>  (1) 
1  0.033055  A 
2  -0.221617 NA
3  0.223223  A 
4  -0.347686 N 
5  0.051426  C 
6  -0.025949 A 
7  -0.056982 A 
8  -0.061917 A 
9  -0.062246 A 
10 -0.061917 A 
11 -0.056982 A 
12 -0.040479 C 
13 -0.211368 NA
14 0.094579  A 
15 0.096465  A 
16 0.075978  A 
17 -0.010333 A 
18 -0.051191 A 
19 -0.025702 A 
20 0.122751  A 
21 -0.207012 F 
22 -0.025702 A 
23 -0.051191 A 
24 0.275018  A 
25 -0.267065 OA
26 -0.246263 N 
27 0.064604  C 
28 0.019288  C 
29 0.077563  C 
30 -0.346118 N 
31 0.077563  C 
32 0.019288  C 
33 -0.282502 N 
34 0.028638  C 
35 -0.015528 A 
36 0.084213  H 
37 0.163818  HD
38 0.057713  H 
39 0.062639  H 
40 0.062280  H 
41 0.062269  H 
42 0.062280  H 
43 0.062639  H 
44 0.025485  H 
45 0.025485  H 
46 0.025485  H 
47 0.063034  H 
48 0.065380  H 
49 0.065380  H 
50 0.063034  H 
51 0.055731  H 
52 0.034673  H 
53 0.034673  H 
54 0.092352  H 
55 0.092352  H 
56 0.345809  HD
57 0.345809  HD
58 0.092352  H 
59 0.092352  H 
60 0.034673  H 
61 0.034673  H 
62 0.047818  H 
63 0.047818  H 
64 0.047818  H 
65 0.066275  H 


>  <torsionSamplingRangeInfo>  (1) 
TORSION 7 6 5 4
SMARTS [a:1][c:2]!@[CX4H1:3][N,O:4]
RANGE 0.0 100.0
RANGE 100.0 180.0
RANGE 180.0 -100.0
RANGE -100.0 0.0
HISTOGRAM 989.0 1407.0 1857.0 2225.0 2282.0 1942.0 1461.0 1050.0 866.0 829.0 1108.0 1585.0 2172.0 2380.0 2218.0 1832.0 1339.0 930.0 891.0 1253.0 1756.0 2241.0 2380.0 2166.0 1589.0 1067.0 843.0 868.0 1046.0 1465.0 1924.0 2253.0 2216.0 1966.0 1515.0 1027.0
TORSION 18 17 16 15
SMARTS [a:1][c:2]!@[CX3:3]=[CX3H0:4]
RANGE 30.0 90.0
RANGE -150.0 -90.0
RANGE 150.0 -150.0
RANGE -30.0 30.0
RANGE -90.0 -30.0
RANGE 90.0 150.0
HISTOGRAM 1630.0 801.0 952.0 1360.0 2018.0 1736.0 1128.0 798.0 656.0 667.0 805.0 1302.0 1985.0 2068.0 1298.0 811.0 721.0 1672.0 1584.0 730.0 846.0 1242.0 2029.0 1907.0 1194.0 834.0 674.0 658.0 776.0 1206.0 1863.0 2027.0 1393.0 946.0 768.0 1731.0
TORSION 24 26 27 51
SMARTS [$(C=O):1][NX3H0:2]!@[CX4H1:3][H:4]
RANGE -30.0 30.0
RANGE 160.0 -160.0
HISTOGRAM 579.0 183.0 69.0 13.0 4.0 5.0 1.0 0.0 7.0 6.0 8.0 6.0 17.0 43.0 107.0 198.0 336.0 623.0 615.0 364.0 214.0 105.0 44.0 14.0 6.0 1.0 7.0 6.0 5.0 3.0 3.0 4.0 20.0 77.0 202.0 590.0


$$$$